Circuit: *Single layer ETI circuit


Date: Mon Nov 21 15:20:03 2022
Total elapsed time: 0.367 seconds.

tnom = 27
temp = 27
method = trap
totiter = 0
traniter = 0
tranpoints = 0
accept = 0
rejected = 0
matrix size = 130
fillins = 2905
solver = Normal

