Circuit: *Single layer ETI circuit


Date: Sun Oct 16 16:19:13 2022
Total elapsed time: 0.120 seconds.

tnom = 27
temp = 27
method = trap
totiter = 0
traniter = 0
tranpoints = 0
accept = 0
rejected = 0
matrix size = 130
fillins = 2947
solver = Normal

