Circuit: *Single layer ETI circuit


Date: Tue Oct 25 18:54:54 2022
Total elapsed time: 0.390 seconds.

tnom = 27
temp = 27
method = trap
totiter = 0
traniter = 0
tranpoints = 0
accept = 0
rejected = 0
matrix size = 130
fillins = 2947
solver = Normal

