Circuit: *Single layer ETI circuit


Date: Tue Oct 25 18:48:50 2022
Total elapsed time: 0.368 seconds.

tnom = 27
temp = 27
method = trap
totiter = 0
traniter = 0
tranpoints = 0
accept = 0
rejected = 0
matrix size = 130
fillins = 2905
solver = Normal

